test/test_files/matlab_test_files/d_003_mdl.m
Bus.con = [ ...
   1      138        1        0    2    1;
   2      138        1        0    3    1;
   3      138        1        0    4    1;
 ];

Line.con = [ ...
   1    3      100      138       60        0        0     0.01     0.12        0        0        0        0      1.5        0 ;
   1    2      100      138       60        0        0     0.01     0.12        0        0        0        0      1.5        0 ;
   2    3      100      138       60        0        0     0.01     0.12        0        0        0        0      1.5        0 ;
 ];

Shunt.con = [ ...
   3      100      138       60        0      0.5 ;
   2      100      138       60        0      0.8 ;
 ];

SW.con = [ ...
   1      100      138     1.02        0      1.5     -1.5      1.1      0.9      1.5        1 ;
 ];

PV.con = [ ...
   2      100      138        1        1      1.5     -1.5      1.1      0.9        1 ;
   3      100      138        1        1      1.5     -1.5      1.1      0.9        1 ;
 ];

PQ.con = [ ...
   3      100      138      0.5      0.3      1.1      0.9  1;
   1      100      138      1.5      0.8      1.1      0.9  1;
   2      100      138      1.5      0.7      1.1      0.9  1;
 ];

Demand.con = [ ...
   2      100      1.5      0.7        1        0        0        0       30        0        0        0        0  0        0;
   3      100      0.5      0.3        1        0        0        0       35        0        0        0        0  0        0;
 ];

Supply.con = [ ...
   1      100      1.5      1.5        0        0        0       25        0        0        0        0  0        0  1.00000;
   1      100      1.5      1.5        0        0        0       25        0        0        0        0  0        0  1.00000;
   1      100      1.5      1.5        0        0        0       25        0        0        0        0  0        0  1.00000;
   1      100      1.5      1.5        0        0        0       25        0        0        0        0  0        0  1.00000;
   2      100      0.8        1        0        0        0       13        0        0        0        0  0        0  1.00000;
   2      100      0.8        1        0        0        0       13        0        0        0        0  0        0  1.00000;
   2      100      0.8        1        0        0        0       13        0        0        0        0  0        0  1.00000;
   2      100      0.8        1        0        0        0       13        0        0        0        0  0        0  1.00000;
   3      100      0.8        1        0        0        0       32        0        0        0        0  0        0  1.00000;
 ];

Varname.bus = {...
'Bus1'; 'Bus2'; 'Bus3'};
